27

C    -2.896893000000     -0.535957000000     -1.233491000000
C    -2.788660000000     -0.464283000000     -2.611362000000
C    -2.647776000000      0.799923000000     -3.180640000000
C    -2.617016000000      1.941068000000     -2.390280000000
C    -2.740963000000      1.847958000000     -1.003496000000
H    -2.816767000000     -1.353688000000     -3.229071000000
H    -2.564541000000      0.890663000000     -4.257898000000
N    -3.059101000000     -1.661141000000     -0.437760000000
C    -3.187531000000     -3.005236000000     -0.931632000000
H    -4.051243000000     -3.096006000000     -1.595571000000
H    -2.290561000000     -3.308945000000     -1.475235000000
H    -3.324491000000     -3.654041000000     -0.069503000000
C    -3.174830000000     -1.337231000000      0.892322000000
C    -2.882728000000      0.603396000000     -0.425567000000
C    -3.145462000000      0.180933000000      0.984062000000
C    -2.478927000000      0.923023000000      2.036741000000
H    -2.033104000000      1.857445000000      1.715993000000
C    -1.913628000000      0.433320000000      3.278063000000
O    -1.045441000000      1.352459000000      3.763390000000
O    -2.158821000000     -0.588131000000      3.885931000000
O    -3.370780000000     -2.153732000000      1.769449000000
C    -0.499733000000      1.063141000000      5.045364000000
H    -1.284800000000      1.046497000000      5.802087000000
H     0.009762000000      0.099042000000      5.038581000000
H     0.206657000000      1.863038000000      5.255127000000
H    -2.511272000000      2.914140000000     -2.854890000000
H    -2.759803000000      2.743437000000     -0.393903000000